<?xml version="1.0" encoding="UTF-8"?>

<!-- generated on 2024-08-29 13:43:45 by Eclipse SUMO netedit Version 1.20.0
<configuration xmlns:xsi="http://www.w3.org/2001/XMLSchema-instance" xsi:noNamespaceSchemaLocation="http://sumo.dlr.de/xsd/neteditConfiguration.xsd">

    <input>
        <sumo-net-file value="/home/daniel/repos/JamBuster/src/map.net.xml"/>
    </input>

    <output>
        <output-file value="/home/daniel/repos/JamBuster/src/map.net.xml"/>
    </output>

    <processing>
        <geometry.min-radius.fix.railways value="false"/>
        <geometry.max-grade.fix value="false"/>
        <offset.disable-normalization value="true"/>
        <lefthand value="0"/>
    </processing>

    <junctions>
        <no-turnarounds value="true"/>
        <junctions.corner-detail value="5"/>
        <junctions.limit-turn-speed value="5.50"/>
        <rectangular-lane-cut value="0"/>
    </junctions>

    <pedestrian>
        <walkingareas value="0"/>
    </pedestrian>

</configuration>
-->

<net version="1.20" junctionCornerDetail="5" limitTurnSpeed="5.50" xmlns:xsi="http://www.w3.org/2001/XMLSchema-instance" xsi:noNamespaceSchemaLocation="http://sumo.dlr.de/xsd/net_file.xsd">

    <location netOffset="-566967.42,-5538258.81" convBoundary="1741.16,1683.45,8328.08,7183.06" origBoundary="21.824253,49.866682,22.532207,50.206970" projParameter="+proj=utm +zone=34 +ellps=WGS84 +datum=WGS84 +units=m +no_defs"/>

    <type id="highway.primary" priority="12" numLanes="2" speed="27.78" disallow="tram rail_urban rail rail_electric rail_fast ship container cable_car subway aircraft wheelchair scooter drone" oneway="0"/>
    <type id="railway.rail" priority="20" numLanes="1" speed="44.44" allow="rail" oneway="1"/>

    <edge id=":1000203473_0" function="internal">
        <lane id=":1000203473_0_0" index="0" disallow="tram rail_urban rail rail_electric rail_fast ship container cable_car subway aircraft wheelchair scooter drone" speed="13.89" length="0.30" shape="7534.13,5113.59 7534.43,5113.62"/>
        <lane id=":1000203473_0_1" index="1" disallow="tram rail_urban rail rail_electric rail_fast ship container cable_car subway aircraft wheelchair scooter drone" speed="13.89" length="0.30" shape="7533.82,5116.78 7534.10,5116.81"/>
    </edge>
    <edge id=":1000203556_0" function="internal">
        <lane id=":1000203556_0_0" index="0" disallow="tram rail_urban rail rail_electric rail_fast ship container cable_car subway aircraft wheelchair scooter drone" speed="13.89" length="0.26" shape="7660.86,5141.82 7660.56,5141.78"/>
        <lane id=":1000203556_0_1" index="1" disallow="tram rail_urban rail rail_electric rail_fast ship container cable_car subway aircraft wheelchair scooter drone" speed="13.89" length="0.26" shape="7661.14,5138.63 7660.92,5138.61"/>
    </edge>
    <edge id=":1000203564_0" function="internal">
        <lane id=":1000203564_0_0" index="0" disallow="tram rail_urban rail rail_electric rail_fast ship container cable_car subway aircraft wheelchair scooter drone" speed="13.89" length="8.16" shape="7656.40,5124.44 7658.76,5124.95 7660.28,5125.68 7661.80,5126.44 7664.15,5127.03"/>
        <lane id=":1000203564_0_1" index="1" disallow="tram rail_urban rail rail_electric rail_fast ship container cable_car subway aircraft wheelchair scooter drone" speed="13.89" length="8.16" shape="7656.07,5127.63 7658.38,5128.12 7659.88,5128.85 7661.38,5129.61 7663.68,5130.20"/>
    </edge>
    <edge id=":1000203589_0" function="internal">
        <lane id=":1000203589_0_0" index="0" disallow="tram rail_urban rail rail_electric rail_fast ship container cable_car subway aircraft wheelchair scooter drone" speed="13.89" length="8.20" shape="7501.24,5108.77 7503.59,5109.27 7505.13,5109.98 7506.66,5110.68 7509.01,5111.16"/>
        <lane id=":1000203589_0_1" index="1" disallow="tram rail_urban rail rail_electric rail_fast ship container cable_car subway aircraft wheelchair scooter drone" speed="13.89" length="8.20" shape="7500.90,5111.95 7503.26,5112.45 7504.80,5113.16 7506.34,5113.87 7508.71,5114.35"/>
    </edge>
    <edge id=":1000203722_0" function="internal">
        <lane id=":1000203722_0_0" index="0" disallow="tram rail_urban rail rail_electric rail_fast ship container cable_car subway aircraft wheelchair scooter drone" speed="13.89" length="0.27" shape="7143.52,5069.09 7143.75,5069.12"/>
        <lane id=":1000203722_0_1" index="1" disallow="tram rail_urban rail rail_electric rail_fast ship container cable_car subway aircraft wheelchair scooter drone" speed="13.89" length="0.27" shape="7143.05,5072.25 7143.36,5072.29"/>
    </edge>
    <edge id=":1000203767_0" function="internal">
        <lane id=":1000203767_0_0" index="0" disallow="tram rail_urban rail rail_electric rail_fast ship container cable_car subway aircraft wheelchair scooter drone" speed="13.89" length="0.10" shape="7389.27,5097.75 7389.27,5097.75"/>
        <lane id=":1000203767_0_1" index="1" disallow="tram rail_urban rail rail_electric rail_fast ship container cable_car subway aircraft wheelchair scooter drone" speed="13.89" length="0.10" shape="7388.91,5100.93 7388.91,5100.93"/>
    </edge>
    <edge id=":1011947443_0" function="internal">
        <lane id=":1011947443_0_0" index="0" disallow="pedestrian tram rail_urban rail rail_electric rail_fast ship container cable_car subway aircraft wheelchair scooter drone" speed="19.44" length="0.30" shape="2958.12,4584.85 2958.10,4584.55"/>
        <lane id=":1011947443_0_1" index="1" disallow="pedestrian tram rail_urban rail rail_electric rail_fast ship container cable_car subway aircraft wheelchair scooter drone" speed="19.44" length="0.30" shape="2961.32,4584.62 2961.30,4584.33"/>
    </edge>
    <edge id=":1011947535_0" function="internal">
        <lane id=":1011947535_0_0" index="0" disallow="pedestrian tram rail_urban rail rail_electric rail_fast ship container cable_car subway aircraft wheelchair scooter drone" speed="19.44" length="8.21" shape="2962.22,4619.29 2961.79,4616.92 2961.12,4615.36 2960.46,4613.80 2960.04,4611.43"/>
        <lane id=":1011947535_0_1" index="1" disallow="pedestrian tram rail_urban rail rail_electric rail_fast ship container cable_car subway aircraft wheelchair scooter drone" speed="19.44" length="8.21" shape="2965.41,4619.05 2964.98,4616.68 2964.31,4615.12 2963.65,4613.57 2963.23,4611.20"/>
    </edge>
    <edge id=":1011947552_0" function="internal">
        <lane id=":1011947552_0_0" index="0" disallow="pedestrian tram rail_urban rail rail_electric rail_fast ship container cable_car subway aircraft wheelchair scooter drone" speed="19.44" length="0.30" shape="2976.82,4494.88 2976.84,4495.16"/>
        <lane id=":1011947552_0_1" index="1" disallow="pedestrian tram rail_urban rail rail_electric rail_fast ship container cable_car subway aircraft wheelchair scooter drone" speed="19.44" length="0.30" shape="2973.62,4495.09 2973.65,4495.40"/>
    </edge>
    <edge id=":10159904560_0" function="internal">
        <lane id=":10159904560_0_0" index="0" allow="rail rail_electric rail_fast" speed="19.45" length="0.28" shape="4057.96,5540.07 4058.14,5540.29"/>
    </edge>
    <edge id=":10301328208_0" function="internal">
        <lane id=":10301328208_0_0" index="0" disallow="tram rail_urban rail rail_electric rail_fast ship container cable_car subway aircraft wheelchair scooter drone" speed="19.44" length="8.21" shape="7135.62,6460.79 7136.88,6462.85 7138.06,6464.06 7139.25,6465.27 7140.51,6467.32"/>
        <lane id=":10301328208_0_1" index="1" disallow="tram rail_urban rail rail_electric rail_fast ship container cable_car subway aircraft wheelchair scooter drone" speed="19.44" length="8.21" shape="7132.73,6462.17 7133.99,6464.22 7135.17,6465.43 7136.36,6466.64 7137.62,6468.70"/>
    </edge>
    <edge id=":1035380726_0" function="internal">
        <lane id=":1035380726_0_0" index="0" disallow="pedestrian tram rail_urban rail rail_electric rail_fast ship container cable_car subway aircraft wheelchair scooter drone" speed="19.44" length="8.17" shape="2984.20,3855.32 2984.30,3857.73 2984.74,3859.37 2985.16,3861.00 2985.21,3863.41"/>
        <lane id=":1035380726_0_1" index="1" disallow="pedestrian tram rail_urban rail rail_electric rail_fast ship container cable_car subway aircraft wheelchair scooter drone" speed="19.44" length="8.17" shape="2981.01,3855.12 2981.11,3857.51 2981.55,3859.13 2981.97,3860.75 2982.02,3863.14"/>
    </edge>
    <edge id=":1035380737_0" function="internal">
        <lane id=":1035380737_0_0" index="0" disallow="pedestrian tram rail_urban rail rail_electric rail_fast ship container cable_car subway aircraft wheelchair scooter drone" speed="19.44" length="0.25" shape="2937.20,4205.72 2937.21,4205.51"/>
        <lane id=":1035380737_0_1" index="1" disallow="pedestrian tram rail_urban rail rail_electric rail_fast ship container cable_car subway aircraft wheelchair scooter drone" speed="19.44" length="0.25" shape="2940.38,4206.02 2940.40,4205.71"/>
    </edge>
    <edge id=":1035380766_0" function="internal">
        <lane id=":1035380766_0_0" index="0" disallow="pedestrian tram rail_urban rail rail_electric rail_fast ship container cable_car subway aircraft wheelchair scooter drone" speed="19.44" length="8.07" shape="2933.65,4251.89 2934.00,4249.56 2934.61,4248.01 2935.20,4246.46 2935.50,4244.13"/>
        <lane id=":1035380766_0_1" index="1" disallow="pedestrian tram rail_urban rail rail_electric rail_fast ship container cable_car subway aircraft wheelchair scooter drone" speed="19.44" length="8.07" shape="2936.85,4252.04 2937.20,4249.68 2937.81,4248.11 2938.40,4246.55 2938.69,4244.19"/>
    </edge>
    <edge id=":1035380808_0" function="internal">
        <lane id=":1035380808_0_0" index="0" disallow="pedestrian tram rail_urban rail rail_electric rail_fast ship container cable_car subway aircraft wheelchair scooter drone" speed="19.44" length="0.29" shape="2966.59,4182.76 2966.58,4183.10"/>
        <lane id=":1035380808_0_1" index="1" disallow="pedestrian tram rail_urban rail rail_electric rail_fast ship container cable_car subway aircraft wheelchair scooter drone" speed="19.44" length="0.29" shape="2963.39,4182.63 2963.38,4182.95"/>
        <lane id=":1035380808_0_2" index="2" disallow="pedestrian tram rail_urban rail rail_electric rail_fast ship container cable_car subway aircraft wheelchair scooter drone" speed="19.44" length="0.29" shape="2960.20,4182.51 2960.18,4182.79"/>
        <lane id=":1035380808_0_3" index="3" disallow="pedestrian tram rail_urban rail rail_electric rail_fast ship container cable_car subway aircraft wheelchair scooter drone" speed="19.44" length="0.29" shape="2957.00,4182.39 2956.99,4182.63"/>
    </edge>
    <edge id=":1035380830_0" function="internal">
        <lane id=":1035380830_0_0" index="0" disallow="pedestrian tram rail_urban rail rail_electric rail_fast ship container cable_car subway aircraft wheelchair scooter drone" speed="19.44" length="0.30" shape="3003.73,3687.29 3003.89,3687.03"/>
        <lane id=":1035380830_0_1" index="1" disallow="pedestrian tram rail_urban rail rail_electric rail_fast ship container cable_car subway aircraft wheelchair scooter drone" speed="19.44" length="0.30" shape="3006.43,3689.00 3006.59,3688.76"/>
    </edge>
    <edge id=":1035380865_0" function="internal">
        <lane id=":1035380865_0_0" index="0" disallow="pedestrian tram rail_urban rail rail_electric rail_fast ship container cable_car subway aircraft wheelchair scooter drone" speed="19.44" length="0.10" shape="2938.75,4181.19 2938.75,4181.19"/>
        <lane id=":1035380865_0_1" index="1" disallow="pedestrian tram rail_urban rail rail_electric rail_fast ship container cable_car subway aircraft wheelchair scooter drone" speed="19.44" length="0.10" shape="2941.95,4181.39 2941.95,4181.39"/>
    </edge>
    <edge id=":1035380891_0" function="internal">
        <lane id=":1035380891_0_0" index="0" disallow="pedestrian tram rail_urban rail rail_electric rail_fast ship container cable_car subway aircraft wheelchair scooter drone" speed="19.44" length="8.21" shape="2948.81,4013.21 2948.73,4010.80 2948.29,4009.17 2947.85,4007.53 2947.76,4005.13"/>
        <lane id=":1035380891_0_1" index="1" disallow="pedestrian tram rail_urban rail rail_electric rail_fast ship container cable_car subway aircraft wheelchair scooter drone" speed="19.44" length="8.21" shape="2952.00,4013.43 2951.92,4011.02 2951.48,4009.39 2951.04,4007.75 2950.95,4005.34"/>
        <lane id=":1035380891_0_2" index="2" disallow="pedestrian tram rail_urban rail rail_electric rail_fast ship container cable_car subway aircraft wheelchair scooter drone" speed="19.44" length="8.21" shape="2955.19,4013.65 2955.11,4011.24 2954.67,4009.61 2954.23,4007.97 2954.15,4005.56"/>
        <lane id=":1035380891_0_3" index="3" disallow="pedestrian tram rail_urban rail rail_electric rail_fast ship container cable_car subway aircraft wheelchair scooter drone" speed="19.44" length="8.21" shape="2955.19,4013.65 2955.61,4011.28 2956.27,4009.71 2956.93,4008.15 2957.34,4005.77"/>
    </edge>
    <edge id=":1035380896_0" function="internal">
        <lane id=":1035380896_0_0" index="0" disallow="pedestrian tram rail_urban rail rail_electric rail_fast ship container cable_car subway aircraft wheelchair scooter drone" speed="19.44" length="7.96" shape="2959.66,3875.28 2960.28,3867.30"/>
        <lane id=":1035380896_0_1" index="1" disallow="pedestrian tram rail_urban rail rail_electric rail_fast ship container cable_car subway aircraft wheelchair scooter drone" speed="19.44" length="7.96" shape="2962.85,3875.49 2963.46,3867.59"/>
    </edge>
    <edge id=":1035380897_0" function="internal">
        <lane id=":1035380897_0_0" index="0" disallow="pedestrian tram rail_urban rail rail_electric rail_fast ship container cable_car subway aircraft wheelchair scooter drone" speed="19.44" length="7.98" shape="2962.33,4204.23 2962.03,4212.17"/>
        <lane id=":1035380897_0_1" index="1" disallow="pedestrian tram rail_urban rail rail_electric rail_fast ship container cable_car subway aircraft wheelchair scooter drone" speed="19.44" length="7.98" shape="2959.14,4204.08 2958.83,4212.08"/>
    </edge>
    <edge id=":1035380941_0" function="internal">
        <lane id=":1035380941_0_0" index="0" disallow="pedestrian tram rail_urban rail rail_electric rail_fast ship container cable_car subway aircraft wheelchair scooter drone" speed="19.44" length="0.10" shape="2961.12,4248.14 2961.12,4248.06"/>
        <lane id=":1035380941_0_1" index="1" disallow="pedestrian tram rail_urban rail rail_electric rail_fast ship container cable_car subway aircraft wheelchair scooter drone" speed="19.44" length="0.10" shape="2957.92,4248.06 2957.92,4248.14"/>
    </edge>
    <edge id=":1035660110_0" function="internal">
        <lane id=":1035660110_0_0" index="0" disallow="tram rail_urban rail rail_electric rail_fast ship container cable_car subway aircraft wheelchair scooter drone" speed="13.89" length="0.29" shape="6944.37,5552.79 6944.37,5552.47"/>
        <lane id=":1035660110_0_1" index="1" disallow="tram rail_urban rail rail_electric rail_fast ship container cable_car subway aircraft wheelchair scooter drone" speed="13.89" length="0.29" shape="6947.57,5552.77 6947.57,5552.49"/>
    </edge>
    <edge id=":1035660214_0" function="internal">
        <lane id=":1035660214_0_0" index="0" disallow="tram rail_urban rail rail_electric rail_fast ship container cable_car subway aircraft wheelchair scooter drone" speed="13.89" length="0.30" shape="6944.79,5481.96 6944.79,5481.66"/>
        <lane id=":1035660214_0_1" index="1" disallow="tram rail_urban rail rail_electric rail_fast ship container cable_car subway aircraft wheelchair scooter drone" speed="13.89" length="0.30" shape="6947.99,5481.98 6947.99,5481.68"/>
    </edge>
    <edge id=":1035660391_0" function="internal">
        <lane id=":1035660391_0_0" index="0" disallow="pedestrian tram rail_urban rail rail_electric rail_fast ship container cable_car subway aircraft wheelchair scooter drone" speed="19.44" length="8.20" shape="7011.00,4732.08 7011.57,4729.74 7012.33,4728.22 7013.10,4726.71 7013.69,4724.37"/>
        <lane id=":1035660391_0_1" index="1" disallow="pedestrian tram rail_urban rail rail_electric rail_fast ship container cable_car subway aircraft wheelchair scooter drone" speed="19.44" length="8.20" shape="7014.17,4732.51 7014.74,4730.17 7015.50,4728.67 7016.27,4727.16 7016.86,4724.83"/>
    </edge>
    <edge id=":1035660498_0" function="internal">
        <lane id=":1035660498_0_0" index="0" disallow="tram rail_urban rail rail_electric rail_fast ship container cable_car subway aircraft wheelchair scooter drone" speed="13.89" length="0.30" shape="6944.27,5338.53 6944.27,5338.23"/>
        <lane id=":1035660498_0_1" index="1" disallow="tram rail_urban rail rail_electric rail_fast ship container cable_car subway aircraft wheelchair scooter drone" speed="13.89" length="0.30" shape="6947.47,5338.47 6947.47,5338.17"/>
    </edge>
    <edge id=":1035895874_0" function="internal">
        <lane id=":1035895874_0_0" index="0" disallow="tram rail_urban rail rail_electric rail_fast ship container cable_car subway aircraft wheelchair scooter drone" speed="13.89" length="0.28" shape="2717.79,6400.43 2717.61,6400.69"/>
        <lane id=":1035895874_0_1" index="1" disallow="tram rail_urban rail rail_electric rail_fast ship container cable_car subway aircraft wheelchair scooter drone" speed="13.89" length="0.28" shape="2715.17,6398.60 2715.03,6398.80"/>
    </edge>
    <edge id=":10779489750_0" function="internal">
        <lane id=":10779489750_0_0" index="0" allow="rail rail_electric rail_fast" speed="11.11" length="0.30" shape="4026.21,5502.90 4026.37,5503.16"/>
    </edge>
    <edge id=":10912505113_0" function="internal">
        <lane id=":10912505113_0_0" index="0" allow="rail" speed="44.44" length="0.23" shape="3531.87,3915.74 3531.77,3915.54"/>
    </edge>
    <edge id=":10912505114_0" function="internal">
        <lane id=":10912505114_0_0" index="0" allow="rail" speed="22.22" length="0.10" shape="3523.25,3920.50 3523.25,3920.50"/>
    </edge>
    <edge id=":10912505122_0" function="internal">
        <lane id=":10912505122_0_0" index="0" allow="rail" speed="22.22" length="0.30" shape="3519.04,3913.06 3519.20,3913.32"/>
    </edge>
    <edge id=":10912505124_0" function="internal">
        <lane id=":10912505124_0_0" index="0" allow="rail" speed="44.44" length="0.25" shape="3527.47,3908.07 3527.34,3907.85"/>
    </edge>
    <edge id=":10912513914_0" function="internal">
        <lane id=":10912513914_0_0" index="0" allow="rail" speed="44.44" length="0.30" shape="3628.30,4240.40 3628.22,4240.12"/>
    </edge>
    <edge id=":10912513915_0" function="internal">
        <lane id=":10912513915_0_0" index="0" allow="rail" speed="22.22" length="0.10" shape="3634.69,4240.45 3634.69,4240.45"/>
    </edge>
    <edge id=":11132396536_0" function="internal">
        <lane id=":11132396536_0_0" index="0" disallow="tram rail_urban rail rail_electric rail_fast ship container cable_car subway aircraft wheelchair scooter drone" speed="13.89" length="8.20" shape="2687.94,6442.62 2686.77,6444.70 2686.31,6446.32 2685.86,6447.94 2684.72,6450.05"/>
        <lane id=":11132396536_0_1" index="1" disallow="tram rail_urban rail rail_electric rail_fast ship container cable_car subway aircraft wheelchair scooter drone" speed="13.89" length="8.20" shape="2685.33,6440.77 2684.15,6442.87 2683.68,6444.49 2683.22,6446.13 2682.08,6448.25"/>
        <lane id=":11132396536_0_2" index="2" disallow="tram rail_urban rail rail_electric rail_fast ship container cable_car subway aircraft wheelchair scooter drone" speed="13.89" length="8.20" shape="2685.33,6440.77 2683.74,6442.59 2682.36,6443.59 2681.00,6444.60 2679.43,6446.44"/>
    </edge>
    <edge id=":11367362403_0" function="internal">
        <lane id=":11367362403_0_0" index="0" disallow="tram rail_urban rail rail_electric rail_fast ship container cable_car subway aircraft wheelchair scooter drone" speed="13.89" length="0.30" shape="2695.58,6431.81 2695.41,6432.05"/>
        <lane id=":11367362403_0_1" index="1" disallow="tram rail_urban rail rail_electric rail_fast ship container cable_car subway aircraft wheelchair scooter drone" speed="13.89" length="0.30" shape="2692.97,6429.97 2692.80,6430.21"/>
    </edge>
    <edge id=":11367362405_0" function="internal">
        <lane id=":11367362405_0_0" index="0" disallow="tram rail_urban rail rail_electric rail_fast ship container cable_car subway aircraft wheelchair scooter drone" speed="13.89" length="0.30" shape="2726.66,6357.82 2726.84,6357.58"/>
        <lane id=":11367362405_0_1" index="1" disallow="tram rail_urban rail rail_electric rail_fast ship container cable_car subway aircraft wheelchair scooter drone" speed="13.89" length="0.30" shape="2729.28,6359.66 2729.45,6359.42"/>
    </edge>
    <edge id=":11408277789_0" function="internal">
        <lane id=":11408277789_0_0" index="0" disallow="tram rail_urban rail rail_electric rail_fast ship container cable_car subway aircraft wheelchair scooter drone" speed="13.89" length="0.30" shape="2754.99,6314.73 2755.17,6314.49"/>
        <lane id=":11408277789_0_1" index="1" disallow="tram rail_urban rail rail_electric rail_fast ship container cable_car subway aircraft wheelchair scooter drone" speed="13.89" length="0.30" shape="2757.61,6316.57 2757.79,6316.33"/>
        <lane id=":11408277789_0_2" index="2" disallow="tram rail_urban rail rail_electric rail_fast ship container cable_car subway aircraft wheelchair scooter drone" speed="13.89" length="0.30" shape="2760.23,6318.41 2760.41,6318.16"/>
    </edge>
    <edge id=":11408277790_0" function="internal">
        <lane id=":11408277790_0_0" index="0" disallow="tram rail_urban rail rail_electric rail_fast ship container cable_car subway aircraft wheelchair scooter drone" speed="13.89" length="0.30" shape="2744.11,6330.25 2744.28,6330.01"/>
        <lane id=":11408277790_0_1" index="1" disallow="tram rail_urban rail rail_electric rail_fast ship container cable_car subway aircraft wheelchair scooter drone" speed="13.89" length="0.30" shape="2746.72,6332.09 2746.90,6331.85"/>
        <lane id=":11408277790_0_2" index="2" disallow="tram rail_urban rail rail_electric rail_fast ship container cable_car subway aircraft wheelchair scooter drone" speed="13.89" length="0.30" shape="2749.34,6333.94 2749.52,6333.69"/>
    </edge>
    <edge id=":11408277804_0" function="internal">
        <lane id=":11408277804_0_0" index="0" disallow="tram rail_urban rail rail_electric rail_fast ship container cable_car subway aircraft wheelchair scooter drone" speed="13.89" length="8.20" shape="2784.48,6277.17 2786.18,6275.46 2787.61,6274.55 2789.05,6273.65 2790.75,6271.95"/>
        <lane id=":11408277804_0_1" index="1" disallow="tram rail_urban rail rail_electric rail_fast ship container cable_car subway aircraft wheelchair scooter drone" speed="13.89" length="8.20" shape="2786.98,6279.17 2788.67,6277.46 2790.10,6276.56 2791.53,6275.67 2793.24,6273.97"/>
    </edge>
    <edge id=":11496982264_0" function="internal">
        <lane id=":11496982264_0_0" index="0" allow="rail" speed="44.44" length="2.99" shape="3696.17,4462.26 3695.26,4459.41"/>
    </edge>
    <edge id=":11497023571_0" function="internal">
        <lane id=":11497023571_0_0" index="0" allow="rail" speed="44.44" length="3.05" shape="3887.10,5176.78 3887.36,5177.64 3887.55,5178.23 3887.76,5178.81 3888.10,5179.65"/>
    </edge>
    <edge id=":11497023573_0" function="internal">
        <lane id=":11497023573_0_0" index="0" allow="rail" speed="44.44" length="0.24" shape="3907.26,5226.41 3907.29,5226.48 3907.31,5226.52 3907.34,5226.56 3907.37,5226.62"/>
    </edge>
    <edge id=":11497023574_0" function="internal">
        <lane id=":11497023574_0_0" index="0" allow="rail" speed="44.44" length="3.06" shape="3867.24,5131.45 3866.88,5130.61 3866.66,5130.03 3866.46,5129.44 3866.18,5128.58"/>
    </edge>
    <edge id=":11497023574_1" function="internal">
        <lane id=":11497023574_1_0" index="0" allow="rail" speed="2.89" length="1.71" shape="3865.98,5128.67 3866.26,5129.24 3866.39,5129.41 3866.36,5129.19 3866.18,5128.58"/>
    </edge>
    <edge id=":11497023581_0" function="internal">
        <lane id=":11497023581_0_0" index="0" allow="rail" speed="44.44" length="30.12" shape="3684.55,4436.64 3683.50,4430.62 3681.97,4421.80 3680.33,4413.01 3678.97,4407.06"/>
    </edge>
    <edge id=":11497023581_1" function="internal">
        <lane id=":11497023581_1_0" index="0" allow="rail" speed="44.44" length="30.12" shape="3687.83,4435.85 3678.97,4407.06"/>
    </edge>
    <edge id=":11497023608_0" function="internal">
        <lane id=":11497023608_0_0" index="0" allow="rail" speed="44.44" length="28.56" shape="3722.75,4727.64 3721.83,4721.84 3720.50,4713.54 3719.08,4705.25 3717.89,4699.51"/>
    </edge>
    <edge id=":11497023608_1" function="internal">
        <lane id=":11497023608_1_0" index="0" allow="rail" speed="44.44" length="28.56" shape="3726.04,4726.88 3717.89,4699.51"/>
    </edge>
    <edge id=":11497023614_0" function="internal">
        <lane id=":11497023614_0_0" index="0" allow="rail" speed="44.44" length="3.03" shape="3650.52,4347.68 3649.92,4344.72"/>
    </edge>
    <edge id=":11497023615_0" function="internal">
        <lane id=":11497023615_0_0" index="0" allow="rail" speed="44.44" length="29.71" shape="3644.29,4333.40 3643.90,4327.36 3643.33,4318.57 3642.66,4309.79 3641.98,4303.79"/>
    </edge>
    <edge id=":11497023615_1" function="internal">
        <lane id=":11497023615_1_0" index="0" allow="rail" speed="44.44" length="29.71" shape="3647.63,4332.96 3641.98,4303.79"/>
    </edge>
    <edge id=":11497023616_0" function="internal">
        <lane id=":11497023616_0_0" index="0" allow="rail" speed="44.44" length="31.23" shape="3639.08,4287.80 3638.01,4281.61 3636.41,4272.41 3634.71,4263.24 3633.33,4257.12"/>
    </edge>
    <edge id=":11497023616_1" function="internal">
        <lane id=":11497023616_1_0" index="0" allow="rail" speed="44.44" length="31.23" shape="3642.35,4287.02 3633.33,4257.12"/>
    </edge>
    <edge id=":11497023624_0" function="internal">
        <lane id=":11497023624_0_0" index="0" allow="rail" speed="44.44" length="2.97" shape="3744.80,4808.86 3745.07,4809.70 3745.27,4810.27 3745.49,4810.83 3745.84,4811.64"/>
    </edge>
    <edge id=":11497023625_0" function="internal">
        <lane id=":11497023625_0_0" index="0" allow="rail" speed="44.44" length="0.10" shape="3762.98,4850.64 3762.99,4850.63"/>
    </edge>
    <edge id=":11497023626_0" function="internal">
        <lane id=":11497023626_0_0" index="0" allow="rail" speed="44.44" length="2.99" shape="3725.99,4748.31 3726.86,4751.17"/>
    </edge>
    <edge id=":11497023627_0" function="internal">
        <lane id=":11497023627_0_0" index="0" allow="rail" speed="44.44" length="2.82" shape="3737.54,4807.20 3737.38,4806.38 3737.26,4805.82 3737.10,4805.27 3736.86,4804.47"/>
    </edge>
    <edge id=":11497023627_1" function="internal">
        <lane id=":11497023627_1_0" index="0" allow="rail" speed="44.44" length="2.83" shape="3737.54,4807.20 3737.02,4804.42"/>
    </edge>
    <edge id=":11497023628_0" function="internal">
        <lane id=":11497023628_0_0" index="0" allow="rail" speed="44.44" length="2.99" shape="3727.62,4753.69 3728.49,4756.56"/>
    </edge>
    <edge id=":11497023629_0" function="internal">
        <lane id=":11497023629_0_0" index="0" allow="rail" speed="44.44" length="2.94" shape="3720.74,4753.00 3720.41,4752.19 3720.23,4751.62 3720.10,4751.04 3719.91,4750.18"/>
    </edge>
    <edge id=":11497023629_1" function="internal">
        <lane id=":11497023629_1_0" index="0" allow="rail" speed="2.97" length="1.89" shape="3719.62,4750.30 3719.90,4750.93 3720.04,4751.13 3720.05,4750.87 3719.91,4750.18"/>
    </edge>
    <edge id=":11497023637_0" function="internal">
        <lane id=":11497023637_0_0" index="0" allow="rail" speed="44.44" length="3.05" shape="3645.05,4342.91 3644.76,4339.87"/>
    </edge>
    <edge id=":11497023639_0" function="internal">
        <lane id=":11497023639_0_0" index="0" allow="rail" speed="44.44" length="0.29" shape="3643.86,4373.24 3643.85,4373.52"/>
    </edge>
    <edge id=":11497023647_0" function="internal">
        <lane id=":11497023647_0_0" index="0" allow="rail" speed="44.44" length="26.13" shape="3700.82,4704.70 3710.79,4728.85"/>
    </edge>
    <edge id=":11497023647_1" function="internal">
        <lane id=":11497023647_1_0" index="0" allow="rail" speed="44.44" length="26.14" shape="3700.82,4704.70 3707.58,4729.94"/>
    </edge>
    <edge id=":11497023658_0" function="internal">
        <lane id=":11497023658_0_0" index="0" allow="rail" speed="44.44" length="3.00" shape="3722.33,4757.16 3722.07,4756.31 3721.88,4755.73 3721.66,4755.16 3721.32,4754.34"/>
    </edge>
    <edge id=":11497023658_1" function="internal">
        <lane id=":11497023658_1_0" index="0" allow="rail" speed="44.44" length="3.00" shape="3722.49,4757.10 3721.32,4754.34"/>
    </edge>
    <edge id=":11497023670_0" function="internal">
        <lane id=":11497023670_0_0" index="0" allow="rail" speed="44.44" length="0.10" shape="3858.62,5141.32 3858.63,5141.31"/>
    </edge>
    <edge id=":11497023671_0" function="internal">
        <lane id=":11497023671_0_0" index="0" allow="rail" speed="44.44" length="3.05" shape="3836.82,5102.05 3835.28,5099.41"/>
    </edge>
    <edge id=":11497023680_0" function="internal">
        <lane id=":11497023680_0_0" index="0" allow="rail" speed="44.44" length="26.52" shape="3744.73,4844.36 3739.68,4818.32"/>
    </edge>
    <edge id=":11497023680_1" function="internal">
        <lane id=":11497023680_1_0" index="0" allow="rail" speed="44.44" length="26.53" shape="3748.05,4843.49 3746.18,4838.25 3743.60,4830.98 3741.15,4823.66 3739.68,4818.32"/>
    </edge>
    <edge id=":11497023681_0" function="internal">