<?xml version='1.0' encoding='UTF-8'?>
<routes><vType id="car" vClass="cable_car" accel="0.8" decel="4.5" sigma="0.5" length="5" maxSpeed="70" /><vType id="bicycle" vClass="bicycle" accel="1.0" decel="2.5" sigma="0.5" length="2" maxSpeed="15" /><vType id="pedestrian" vClass="pedestrian" accel="1.5" decel="1.0" sigma="0.5" length="0.5" maxSpeed="5" /><route id="route_1" color="0.05158008228496391,0.40744160396408047,0.15565959033016985" edges="-233181388#1 -283536876#0 627787193#2 343450879#1 300400013 630756876#1 218271702#16 212502949#1 -172958480#3 -1077621034#1" /><route id="route_2" color="0.7308025082606345,0.8850107722754071,0.4525987754363828" edges="1229063700 389130085#1 202898295#6 -1190008995#1 -335090917 1204983858#2 489845474#0 996735752#0 1058268358 334210584#0" /><route id="route_3" color="0.9791270815131446,0.5158101485190231,0.9080820303951326" edges="-211965618#4 -332350413#5 988387162 282571190#2 477682629#0 -244359498#2 145642573#3 183552012#3 172960659#1 172960659#3" /><route id="route_5" color="0.5349170298949223,0.03825378278608682,0.5805489383490615" edges="1268972311#0 -189332794#2 209323031#1 627787162#1 -197477620#0 637160702#0 218271699#0 197493808#11 631137044 -172960680#7" /><route id="route_6" color="0.8206974677837815,0.27919996682282056,0.8190842444123874" edges="-282571179#0 -289824319 631137049#0 234902866#2 -331943158 365285140#3 233181374#0 209347140#0 211766861#1 89213068#0" /><route id="route_7" color="0.5458815356628236,0.6044728769629797,0.46843826105217" edges="358209367 631137057#1 294513667#5 219915097#12 932104030#1 1100801971#2 631350007#0 631137044 208866083#8 631251790#10" /><route id="route_8" color="0.6527518879543368,0.23002551261770265,0.17282752545450142" edges="-172960677#2 334210586#2 -182563645#8 -211766876#1 1161826523#1 -299381085#0 -502825753#11 -199336109#3 320323001 296948795" /><route id="route_9" color="0.8561987861082667,0.5769904913066825,0.2567308115990109" edges="638562241#0 -960061556 299381085#1 352225077#2 -172995226#4 -145642573#1 635376255#1 -34331468#3 789233931 296906404#1" /><route id="route_10" color="0.10242172147549622,0.39883503411619936,0.12908783562877868" edges="638488875#2 1101005826 203996944#2 -283536885#0 207778120#6 -381178436#2 211766867#1 -284658100#5 234902911#0 218271722#7" /><route id="route_11" color="0.7672246577448844,0.6673501961216035,0.5164007220880178" edges="296906405 211766851 -337895508#1 234902866#2 987123917#0 -34331442#12 -203759079#0 638562239#1 793216668#1 489845617" /><route id="route_12" color="0.36991198560405636,0.40267055594357803,0.18230685927612555" edges="631137070#1 -181443728#0 1261117404#1 34331832#5 -172993578 233181388#1 -231902127#1 -631349997#0 239327576#1 -290639859" /><route id="route_13" color="0.9954736725070259,0.18608090978461045,0.2700490791404203" edges="1288538379#0 239327594#8 988450164#7 -34331532#4 637160704#0 -332350432#0 365278754 34331470#4 207778166#0 -211766871#2" /><route id="route_14" color="0.4236786755199401,0.7137407584830102,0.26817244845173627" edges="34331352#5 -172958496#2 189332803#0 -942997801#1 335090919 988387158#1 289824317#3 365347436#0 331943159 873031730" /><route id="route_15" color="0.779917593935311,0.019639502477410642,0.32819845490614963" edges="337084160#0 262500629#1 34331442#13 -44625079#1 -34331468#2 172958496#3 638488875#5 332215936 1229063679#0 -145110683#10" /><route id="route_16" color="0.3469381140419384,0.48213008741148855,0.4643617637498707" edges="-217965271#2 172958508#0 203996944#0 -627787182 -289824317#2 182160660#2 233181378 -89207954#3 282571105#3 189332802" /><route id="route_17" color="0.8065771697563373,0.697347818202498,0.26000349933381983" edges="1078130710#0 -233181371#5 1203824388 -172960674#4 381178438#2 -634993389 1111551291 320323008#1 182564080#1 282571105#0" /><route id="route_18" color="0.39046077029518533,0.21512386514246007,0.5833400764256407" edges="218271696 638606092 993276237 793216656#6 363901662#1 -244491621#0 34331840#0 -172958490#2 -202898295#5 1203824404#4" /><route id="route_19" color="0.4591658602256268,0.8540137604114371,0.6855161141334145" edges="984234956 213560867 196697893 365343502 172960678#2 -1085981923#2 631365190#1 203759072#1 332215942 -145642573#9" /><route id="route_21" color="0.2439027047785418,0.4295380626139693,0.7001959226120971" edges="389422903 631251639#0 984933446#1 172960683#2 988643341#1 1268983082#5 -304157321#1 1232881926 631251622#5 1301063408#1" /><route id="route_22" color="0.8257224640606167,0.5203979643041804,0.8116164458034294" edges="-182564080#7 266592436 -172860056#1 -637160721#4 212502959#8 -332350413#5 631251614#1 212502954#0 -215104194#0 183552010#2" /><route id="route_23" color="0.2049286427128344,0.7602465864343798,0.7650779113815948" edges="-489845477 34331468#1 172960678#0 161544704#2 234902885 636128629 283536885#6 -172995226#3 -1301063409 331698144" /><route id="route_25" color="0.2883151955520157,0.748374398801251,0.04636205946301819" edges="331698141#1 638540693#0 1203824379#0 207778120#3 172960659#3 -167462824#2 -987123916#0 233181373#2 262500633 302161628" /><route id="route_26" color="0.9852410700613838,0.43681602181762813,0.6647252002167475" edges="296948771#0 182571912#2 -244359498#4 -181443728#2 124861849#8 627787199#0 1214279837#2 -86979443#0 -282571192#0 207778134" /><route id="route_28" color="0.6581462879709676,0.11145586694715937,0.7565403280511718" edges="627787198#6 320322991#1 -1261117405 336995177 1077949288#0 974126613#0 -209193209#5 -296948808 -490396380#1 365278754" /><route id="route_31" color="0.41551167594700644,0.1819121725889773,0.7510062861448462" edges="984363363#7 331698162#4 631251646#1 34331449#2 334210589#0 1234387702#1 638540693#2 638488760 -636961800#0 -300399985#6" /><route id="route_32" color="0.17373622306637682,0.1481624586533956,0.868296243253165" edges="1234487984#2 -172958480#3 -207778171#3 -300399987#1 -635376178#2 -1192173102 -199336109#0 -371755834#2 988643338#3 627754994#0" /><route id="route_33" color="0.7013925520396994,0.8828035317108474,0.8757741175510152" edges="636128626#2 34331503#4 1077612915 -161544702#7 -989758542 -172958480#2 218271699#2 984933427#6 212502956#7 1085984766#2" /><route id="route_35" color="0.2533960613549605,0.47755563123289924,0.6065119086857973" edges="300400014 331698157#1 1266831963#5 211766838#2 301093748 -172995226#11 172995225#1 301007913 -255161543#2 218271702#9" /><route id="route_36" color="0.8426236092629382,0.8730919558166472,0.465604683276196" edges="172958475#1 301007919#1 -332350413#0 282571182#4 283436901 218645038 -332350429#0 631251790#6 636620238#0 984363363#12" /><route id="route_37" color="0.11149738036828727,0.9504119541644256,0.8071437956520969" edges="209193192#3 1021751107#1 -189517602#0 983368936#1 330664775#0 635443163#2 217965123#4 365319868 209323039#1 638488823#2" /><route id="route_38" color="0.38208388158363604,0.9051274232713563,0.37622666427486606" edges="638488888#0 34331832#0 -218271700#0 984933430#0 301093780#3 161548501#1 -183552012#0 -352225076 -636128628 477679819#3" /><route id="route_39" color="0.5803031221318196,0.7742139779916957,0.9757660348916499" edges="635376253#0 -282571189#0 207298627#0 635376177#0 1288652699#9 1204993422 -208287289#4 1101006880#0 1234731844#1 -334210599#2" /><route id="route_40" color="0.6941515419713057,0.49008369803387763,0.47025382042803143" edges="984933425#6 -381178438#0 627754992#3 -334210604#0 1301059892#1 630756971#0 988387152#1 1085987081 1077639973 1094071082#8" /><route id="route_41" color="0.36834593387717707,0.3993780147714584,0.5164516824756705" edges="365285140#2 -630756862#0 209347140#1 209193197#7 212502958#4 172962621#6 -172958484#0 636961822#0 477682629#1 -331943150" /><route id="route_42" color="0.5875433548319288,0.7688211001186764,0.41189232573303336" edges="182765310#1 630756857#0 217985248#4 -197493808#6 213560858#8 123802923#1 207778120#7 635376255#1 -283536876#1 216580753#0" /><route id="route_43" color="0.29360148628939164,0.10303779720183459,0.5609590544527182" edges="-234902913#1 -1266831963#0 181443231#1 365291080#2 -334210607#1 1077950567 -630756867#0 282571117#8 -207778112#1 -331943161" /><route id="route_44" color="0.38650320301880436,0.645449055602628,0.1840870523917939" edges="332350416 993276229 -330664772 1229063717#0 -330664769 1204983860#1 283536875#8 -627754994#1 -789233928#1 330664766" /><route id="route_46" color="0.06631495255574738,0.9204982802628917,0.28553731552140227" edges="389422909#4 331943162 89216357#1 -331698168#1 799114059 1178348401#1 988450164#7 -209193191#0 -330436287#3 -332215930#4" /><route id="route_47" color="0.8619065144592183,0.5551515529615514,0.09346070960326802" edges="634993483#0 -635443163#2 320302314#0 489845438#1 209347139 1077639976#0 631251697#8 984933446#3 296948786 -284658108#1" /><route id="route_48" color="0.06467949646883853,0.29280411293111464,0.2730160855379039" edges="86979441#0 1085984765#1 233181372#0 -332215953#4 -1300883555 630756869 336995170#2 1209833086#1 988643340#4 244359482" /><person id="person_37_0" depart="1"><walk route="route_37" color="0.47964344050161933,0.2950370329549522,0.2722266433827908" /></person><vehicle id="veh_39_0" type="bicycle" route="route_39" depart="1" color="0.08985885580137465,0.21057317712536971,0.10686931446728332" /><person id="person_12_1" depart="2"><walk route="route_12" color="0.008824162873090957,0.44044336248419125,0.41628273653503023" /></person><person id="person_40_0" depart="3"><walk route="route_40" color="0.12403860930747002,0.0015360571764491127,0.013251786727003556" /></person><vehicle id="veh_11_1" type="bicycle" route="route_11" depart="4" color="0.7872341011920039,0.736732768638279,0.9996488533345452" /><person id="person_31_1" depart="4"><walk route="route_31" color="0.5233679910945456,0.7522129869837687,0.816191340329393" /></person><person id="person_36_0" depart="8"><walk route="route_36" color="0.26914952807853654,0.47912629976655474,0.06910699933674569" /></person><person id="person_25_0" depart="9"><walk route="route_25" color="0.9222783414747341,0.32060094835136044,0.9993493884833976" /></person><vehicle id="veh_33_0" type="bicycle" route="route_33" depart="9" color="0.8124950390373165,0.965225866357659,0.7241015786710931" /><person id="person_14_1" depart="12"><walk route="route_14" color="0.8677572959667365,0.497081278476701,0.21315233047452975" /></person><person id="person_31_0" depart="14"><walk route="route_31" color="0.19100093996557876,0.3548890520346969,0.4546065872629985" /></person><vehicle id="veh_6_1" type="bicycle" route="route_6" depart="17" color="0.8167147575862846,0.12040813817402274,0.23488085272522508" /><vehicle id="veh_23_0" type="bicycle" route="route_23" depart="18" color="0.6346690828665884,0.9420070858277393,0.9380904635644952" /><person id="person_21_1" depart="19"><walk route="route_21" color="0.9704829802344787,0.11596647889086986,0.9980972977487955" /></person><vehicle id="veh_18_0" type="bicycle" route="route_18" depart="22" color="0.9754314004369622,0.7816753237408232,0.6693057714378681" /><vehicle id="veh_10_2" type="bicycle" route="route_10" depart="24" color="0.16785002865158782,0.8385244215706981,0.9525128103863683" /><person id="person_21_2" depart="26"><walk route="route_21" color="0.26265059163530713,0.7284733252240826,0.29328361323656016" /></person><vehicle id="veh_16_0" type="bicycle" route="route_16" depart="27" color="0.4258064665014958,0.6199894442061102,0.19934337084481624" /><vehicle id="veh_6_2" type="bicycle" route="route_6" depart="31" color="0.190768959436748,0.31453617167128733,0.8997615886795696" /><person id="person_2_1" depart="32"><walk route="route_2" color="0.29805166583790976,0.8117345862992955,0.8868353473147865" /></person><vehicle id="veh_5_0" type="bicycle" route="route_5" depart="32" color="0.7432598114524064,0.30939942192673564,0.7472202221217188" /><person id="person_31_2" depart="32"><walk route="route_31" color="0.799902093369747,0.3336097787940403,0.26656140154340147" /></person><person id="person_47_0" depart="32"><walk route="route_47" color="0.370680695992311,0.7904091708960014,0.42838406710961463" /></person><vehicle id="veh_3_1" type="bicycle" route="route_3" depart="35" color="0.5134819568367154,0.6371337436540604,0.530496389728974" /><person id="person_12_2" depart="35"><walk route="route_12" color="0.7046486451300333,0.16458172638809265,0.2724883816769914" /></person><vehicle id="veh_32_0" type="bicycle" route="route_32" depart="36" color="0.1733556466854742,0.9241330189217191,0.08154491587059742" /><vehicle id="veh_8_0" type="bicycle" route="route_8" depart="37" color="0.3051004120426989,0.4626961395399878,0.4175116625972236" /><vehicle id="veh_6_0" type="bicycle" route="route_6" depart="38" color="0.6492417634768303,0.7703726944264377,0.7983067519768239" /><person id="person_19_0" depart="38"><walk route="route_19" color="0.046893261041626944,0.05934703061573976,0.21955691799557875" /></person><vehicle id="veh_44_0" type="bicycle" route="route_44" depart="38" color="0.12962388808468572,0.9352777199959448,0.7015504112402678" /><vehicle id="veh_5_1" type="bicycle" route="route_5" depart="39" color="0.28729305508894754,0.3633840357680509,0.5555293793522377" /><person id="person_12_0" depart="40"><walk route="route_12" color="0.9669078852575957,0.6902387706544284,0.21647200643178666" /></person><vehicle id="veh_10_0" type="bicycle" route="route_10" depart="41" color="0.8901234814587015,0.7635473834610332,0.29121075947792874" /><vehicle id="veh_3_0" type="bicycle" route="route_3" depart="43" color="0.7259735039479085,0.262975310066496,0.6208972183435902" /><person id="person_14_0" depart="43"><walk route="route_14" color="0.8685596502934979,0.5219946569339233,0.6547624171740976" /></person><vehicle id="veh_15_1" type="bicycle" route="route_15" depart="43" color="0.9803331809623758,0.03465060300815581,0.17646919685898854" /><vehicle id="veh_1_1" type="bicycle" route="route_1" depart="47" color="0.8356373954548687,0.4838849003563791,0.8562987293906388" /><vehicle id="veh_10_1" type="bicycle" route="route_10" depart="47" color="0.1920771543558203,0.030433825649128776,0.49874635621498964" /><vehicle id="veh_15_0" type="bicycle" route="route_15" depart="48" color="0.14717426896807972,0.8848957882590638,0.10952488609271138" /><person id="person_42_0" depart="48"><walk route="route_42" color="0.5098819521796621,0.3564054494162897,0.14163445306545308" /></person><vehicle id="veh_5_2" type="bicycle" route="route_5" depart="49" color="0.712215070628797,0.8842672315901061,0.13180140473871715" /><person id="person_17_0" depart="49"><walk route="route_17" color="0.30633564292820736,0.8616896368515121,0.5868877458986734" /></person><vehicle id="veh_7_1" type="bicycle" route="route_7" depart="51" color="0.7306920885683097,0.5800375519711337,0.5887164042097558" /><vehicle id="veh_11_0" type="bicycle" route="route_11" depart="51" color="0.1338998389141609,0.9389987635335939,0.5374978440481161" /><vehicle id="veh_39_1" type="bicycle" route="route_39" depart="51" color="0.03521790415719117,0.9594258291917471,0.16334979294748442" /><person id="person_41_1" depart="51"><walk route="route_41" color="0.9700193450219003,0.028089998385586123,0.56536801091802" /></person><person id="person_21_0" depart="54"><walk route="route_21" color="0.9062458577885175,0.3714325381240935,0.47007181865172043" /></person><vehicle id="veh_23_1" type="bicycle" route="route_23" depart="57" color="0.9916619079028313,0.3451490932142328,0.8989367750700061" /><person id="person_28_0" depart="63"><walk route="route_28" color="0.1814213754223054,0.10060842486730959,0.09773983073745773" /></person><person id="person_14_2" depart="67"><walk route="route_14" color="0.015619929474460115,0.47936545339722136,0.8863512586527759" /></person><vehicle id="veh_22_0" type="bicycle" route="route_22" depart="67" color="0.9934112967835623,0.42936791951198394,0.26557337988091057" /><vehicle id="veh_35_0" type="bicycle" route="route_35" depart="67" color="0.2831858516038539,0.9469157199244705,0.5883780581038022" /><person id="person_19_1" depart="69"><walk route="route_19" color="0.5415850565028734,0.3923577589275711,0.5336878856855524" /></person><person id="person_28_1" depart="70"><walk route="route_28" color="0.8292236899824004,0.5961647189044398,0.9403224173424408" /></person><person id="person_40_1" depart="76"><walk route="route_40" color="0.9966809648853295,0.1350397442337129,0.23760600715896474" /></person><vehicle id="veh_48_0" type="bicycle" route="route_48" depart="79" color="0.992536633871085,0.7405946260475367,0.29120005094771606" /><person id="person_17_1" depart="81"><walk route="route_17" color="0.6420006960992889,0.12657551509917364,0.9375950633701569" /></person><person id="person_37_1" depart="81"><walk route="route_37" color="0.6419824395504458,0.1242610488306517,0.48624763297274265" /></person><vehicle id="veh_8_1" type="bicycle" route="route_8" depart="83" color="0.33898761704758007,0.9606053597102425,0.22810020882528192" /><vehicle id="veh_13_0" type="bicycle" route="route_13" depart="83" color="0.5568580260161459,0.6538361910568806,0.8435204727432586" /><vehicle id="veh_7_0" type="bicycle" route="route_7" depart="84" color="0.59175821807706,0.6507182347758163,0.07650848577620684" /><vehicle id="veh_26_1" type="bicycle" route="route_26" depart="84" color="0.4192696863085388,0.13633200879025864,0.719045472644702" /><vehicle id="veh_1_0" type="bicycle" route="route_1" depart="86" color="0.4864504784845084,0.33704127869789946,0.870726539794726" /><vehicle id="veh_26_0" type="bicycle" route="route_26" depart="88" color="0.04451479497813826,0.10193582108907173,0.731559496423591" /><person id="person_38_0" depart="90"><walk route="route_38" color="0.839990064461683,0.9403123916370512,0.2573184661912956" /></person><person id="person_19_2" depart="92"><walk route="route_19" color="0.6188299214099878,0.8594797868227337,0.13243585713421757" /></person><vehicle id="veh_32_1" type="bicycle" route="route_32" depart="92" color="0.9118871616358712,0.9633666335779341,0.21778102066660932" /><person id="person_41_0" depart="92"><walk route="route_41" color="0.20590949964989957,0.6978337863215498,0.21461659963493473" /></person><person id="person_46_0" depart="92"><walk route="route_46" color="0.272679465543855,0.5899379512407108,0.2973764180988886" /></person><vehicle id="veh_43_0" type="bicycle" route="route_43" depart="94" color="0.6896509462808746,0.11656846800257314,0.4501429808597819" /><person id="person_2_0" depart="95"><walk route="route_2" color="0.47922304984083475,0.663969069017994,0.18077348201100274" /></person><vehicle id="veh_16_1" type="bicycle" route="route_16" depart="95" color="0.07424726821051708,0.07527452115449496,0.6188243620734998" /><person id="person_9_0" depart="98"><walk route="route_9" color="0.4798478707199092,0.9795752624312927,0.46450748871572634" /></person><person id="person_9_1" depart="99"><walk route="route_9" color="0.9571915005822859,0.4089802506893956,0.08933356725239128" /></person><vehicle id="veh_33_1" type="bicycle" route="route_33" depart="99" color="0.826482403107721,0.5906672365655515,0.6895686458765428" /></routes>