<?xml version='1.0' encoding='UTF-8'?>
<routes><vType id="car" vClass="cable_car" accel="0.8" decel="4.5" sigma="0.5" length="5" maxSpeed="70" guiShape="passenger" /><vType id="bicycle" vClass="bicycle" accel="1.0" decel="2.5" sigma="0.5" length="2" maxSpeed="15" guiShape="bicycle" /><vType id="pedestrian" vClass="pedestrian" accel="1.5" decel="1.0" sigma="0.5" length="0.5" maxSpeed="5" shape="pedestrian" /><route id="route_0" color="0.2565101803394735,0.6281178952890561,0.2694607109386691" edges="-304157325 304157309#3 -304157309#3 -304157309#2 -304157309#1 -304157309#0 -14478865#0 14478865#0 14478865#1 791035532 1192173102 34331110#0 34331110#1 34331110#2 34331110#3 34331110#4 34331110#5 238668579#0 238668579#1 238668576#0 238668576#1 -283536876#3 -283536876#2 -283536876#1 299381076#0 -299381076#0 -283536876#0 -172958491#2 -172958491#1 172958496#0 172958496#1 172958496#2 172958496#3 301007914 301007912 301007917 -301007917 -301007912 -301007914 301007914 301007912 301007917 -301007917 -301007912 -301007914 172958496#4 337084157 337084160#1 -337084173#0 172958496#3 172958496#4 172958496#5 172958496#6 -172958496#6 301007926 -301007926 172958496#6 -172958496#6 -172958496#5 337084157 -337084157 172958496#5 301007926 -301007926 172958496#6 -172958496#6 301007926 -301007926 301007926 -301007926 301007926 -301007926 172958496#6 -172958496#6 -172958496#5 -172958496#4 301007914 301007912 301007917 -301007917 -301007912 -301007914 -172958496#3 -172958496#2 -172958496#1 -172958496#0 172958491#1 172958491#2 -172958491#2 -172958491#1 172958496#0 172958496#1 172958496#2 172958496#3 172958496#4 337084157 337084160#1 -337084173#0 -172958496#2 -172958496#1" /><route id="route_2" color="0.24541935239909918,0.5591561474593545,0.5041890037891368" edges="234902912 -234902876#1 -234902876#0 34331442#8 631103953#0 -631103953#0 34331442#9 34331442#10 34331442#11 34331442#12 630756862#0 -630756862#0 34331442#13 34331442#14 172860058#0 172860058#1 636128629 636128628 -636128626#0 -636128626#2 636128626#2 636128626#0 636128626#1 636128626#2 636128626#0 636128626#1 -636128626#1 636128626#1 636128626#2 636128626#0 -636128628 -636128629 -172860058#1 -172860058#0 -34331442#14 -34331442#13 630756862#0 -630756862#0 630756862#0 630756862#1 630756861 630756860 -630756860 -630756861 -630756862#1 630756862#1 630756861 630756860 -630756860 -630756861 -630756862#1 630756862#1 630756861 630756860 -630756860 -630756861 -630756862#1 630756862#1 630756861 630756860 -630756860 -630756861 -630756862#1 -630756862#0 -34331442#12 -172860052#12 -172860052#11 -332215953#6 332215953#6 -332215953#6 -332215953#5 332215953#5 -332215953#5 630756870 -630756870 630756870 -630756870 332215953#5 -332215953#5 332215953#5 -332215953#5 332215953#5 332215953#6 172860052#11 172860052#12 -172860052#12 -172860052#11 -172860052#10 -172860052#9 -172860052#8 145642573#8 145642573#9 -631365202#1 -631365202#0 631365202#0 -631365202#0 631365202#0 631365202#1 630756961#0 630756961#1" /><route id="route_4" color="0.8787069801613475,0.5669385512500446,0.697048300659081" edges="1289148230" /><route id="route_5" color="0.769033028153137,0.44344455588918075,0.30960462905191544" edges="-335090921#0 -197477620#1 -197477620#0 197477620#0 197477620#1 335090921#0 335090921#1 -335090921#1 335090921#1 -335090921#1 -335090921#0 335090921#0 335090921#1 -335090921#1 335090921#1 -335090921#1 -335090921#0 -197477620#1 -197477620#0 197477620#0 197477620#1 197477620#2 197477620#3 -197477620#3 266592441#0 266592441#1 266653574#0 -266653574#0 -266592441#1 266592441#1 266653574#0 266653574#1 266653580 -239327576#2 -239327576#1 -239327576#0 172960688#0 172960688#1 172960680#0 172960680#1 172960680#2 172960680#3 172960680#4 172960680#5 172960680#6 172960680#7 266667791 -266667791 266667791 -266667791 -172960680#7 -172960680#6 202390343 -202390343 172960680#6 172960680#7 172960680#8 -266667792 266667792 -172960680#8 266667791 -266667791 172960680#8 172960680#9 -172960680#9 -172960680#8 -172960680#7 -172960680#6 -172960680#5 -172960680#4 -172960680#3 -172960680#2 335090914 -335090914 335090914 -335090914 172960680#2 335090917 -335090917 172960680#3 172960680#4 172960680#5 172960680#6 172960680#7 172960680#8 -266667792 266667792 -172960680#8 -172960680#7 -172960680#6 -172960680#5 -172960680#4 -172960680#3 335090917 -335090917 335090917 -335090917 335090917 -335090917 335090917" /><route id="route_6" color="0.9126363880157607,0.569605099600354,0.519467315491293" edges="-300400001#3 -300400001#2 -300400001#1 300400001#1 -300400001#1 -300400001#0 300399985#4 172958484#0 172958484#1 296948772 296948768 296948781 -296948781 -296948768 -296948772 172958484#2 -296948762#1 -296948762#0 296948762#0 296948762#1 -172958484#2 -172958484#1 -172958484#0 300399985#5 197493808#0 -197493808#0 300399985#6 300399985#7 300399987#0 300400007#0 -300400007#0 300400007#0 -300400007#0 -300399987#0 -300399985#7 -300399985#6 197493808#0 197493808#1 197493808#2 197493808#3 -197493808#3 197493808#3 -197493808#3 197493808#3 -197493808#3 197493808#3 -197493808#3 197493808#3 197493808#4 336995154 -336995152#0 336995152#0 336995152#1 -336995152#1 336995152#1 -336995152#1 -336995154 336995154 -336995152#0 336995152#0 -336995154 197493808#5 197493808#6 197493808#7 197493808#8 -197493808#8 197493808#8 197493808#9 197493808#10 -197493808#10 -197493808#9 197493808#9 -197493808#9 197493808#9 -197493808#9 -197493808#8 -197493808#7 -197493808#6 -197493808#5 336995154 -336995154 -197493808#4 197493808#4 336995154 -336995152#0 336995152#0 336995152#1 -336995152#1 -336995152#0 336995152#0 -336995152#0 336995152#0 -336995154 197493808#5 197493808#6 -197493808#6 -197493808#5 -197493808#4 -197493808#3 -197493808#2" /><route id="route_7" color="0.6537383496616678,0.02422157059318575,0.4404462587651522" edges="234902878#7" /><route id="route_10" color="0.8606217066876745,0.39016407562021127,0.8083447309065624" edges="331459554#1 -331459554#1 331459554#1 -331459554#1 -331459554#0 172958498#2 -1100828841#1 1100828841#1 172958498#3 -172958498#3 -172958498#2 331459554#0 331459554#1 -331459554#1 -331459554#0 172958498#2 -1100828841#1 -1100828841#0 1100828841#0 1100828841#1 -1100828841#1 -1100828841#0 1100828841#0 -1100828841#0 1100828841#0 1100828841#1 -172958498#2 -172958498#1 -172958498#0 -172958486#4 -172958486#3 -172958486#2 -172958486#1 -172958486#0 172958486#0 172958486#1 172958486#2 -1100806747#1 -1100806747#0 1100806747#0 -1100806747#0 1100806747#0 1100806747#1 -1100806747#1 -1100806747#0 1100806747#0 -1100806747#0 1100806747#0 1100806747#1 -1100806747#1 1100806747#1 -1100806747#1 1100806747#1 172958486#3 331459553#0 -331459553#0 172958486#4 172958486#5 -1100801969#1 -1100801969#0 1100801969#0 -1100801969#0 1100801969#0 1100801969#1 172958486#6 172958486#7 -172958486#7 -172958486#6 -172958486#5 172958498#0 172958498#1 172958498#2 -1100828841#1 -1100828841#0 1100828841#0 1100828841#1 -172958498#2 -172958498#1 -172958498#0 -172958486#4 -172958486#3 -1100806747#1 1100806747#1 -172958486#2 -172958486#1 -172958486#0 172958486#0 172958486#1 -1101005393#1 1101005393#1 172958486#2 -1100806747#1 1100806747#1 172958486#3 172958486#4 172958486#5 172958486#6 172958486#7 -172958486#7 -172958486#6" /><route id="route_11" color="0.3602040207769075,0.28806900445517225,0.2858424978158577" edges="1224915079#0" /><route id="route_13" color="0.5839000358863037,0.9966642616796294,0.6661653929597047" edges="-635376178#2 635376178#2 -635376178#2 635376178#2 635376178#3 -635376178#3 635443144 -635443144 -635376178#2 635443143#0 -635443143#0 635376178#2 -635376178#2 -635376178#1 -635376178#0 -634993405#5 -635376255#1 -635376203#2 -635376203#1 -635376203#0 635443163#2 -635376177#0 634993405#3 -635443163#0 -635443163#7 635443163#7 -635376203#1 -635443163#0 635376203#2 635376203#3 635376203#4 -635443163#1 -635443163#0 635376203#2 635376255#1 -634993405#4 634993405#4 634993405#5 635376178#0 635376178#1 635443143#0 -635443143#0 -635376178#1 635376178#1 -635376178#1 -635376178#0 634993405#6 -634993405#6 635376178#0 635376178#1 635443143#0 636620273 -635376177#5 -635376178#4 -635376178#3 635376178#3 635376178#4 -635376178#4 635443132 -635443132 635376178#4 635376177#5 -635376177#5 -635376178#4 635443132 -635443132 -635376178#3 635443144 -635443144 -635376178#2 -635376178#1 -635376203#3 -635376203#2 -635376203#1 634993405#4 -635376255#1 635376203#3 -635376203#3 -635376255#0 635376255#0 -635376255#0 635376255#0 635376203#3 635376203#4 635443163#2 635376177#1 635376177#2 -635376177#2 -635376177#1 -635443163#2 635443163#2 -635443163#2 -635376203#4 635376203#4 635443163#2 635443163#3 -635443169#0 -635443169#6 635443169#6 635443169#0" /><route id="route_14" color="0.6054742703964834,0.880801884235804,0.9525711289531636" edges="-209323029#3 -209323029#2 -209323029#1 -209323029#0 -145110683#8 -209323031#2 209323031#2 145110683#8 209323029#0 -209323029#0 209323029#0 -209323029#0 -145110683#8 -209323031#2 209323031#2 -145110683#7 -145110683#6 -145110683#5 -145110683#4 -145110683#3 -145110683#2 -145110683#1 -145110683#0 145110683#0 145110683#1 145110683#2 145110683#3 145110683#4 145110683#5 209347169 -209347169 209347169 -209347169 -145110683#5 -145110683#4 -145110683#3 -145110683#2 -145110683#1 -145110683#0 145110683#0 145110683#1 145110683#2 145110683#3 145110683#4 145110683#5 209347169 -209347169 -145110683#5 -145110683#4 -145110683#3 -145110683#2 -145110683#1 -145110683#0 145110683#0 145110683#1 145110683#2 145110683#3 145110683#4 145110683#5 145110683#6 145110683#7 145110683#8 145110683#9 145110683#10 145110683#11 990091469#2 34331468#0 34331468#1 -34331468#1 -34331468#0 -197477617#1 -197477617#0 207778111#0 207778111#1 207778111#2 282402044#0 207298627#0 -207298627#0 -282402044#0 -207778111#2 -207778111#1 -207778111#0 197477617#0 197477617#1 990091468#0 990091468#1 990091468#2 -371755834#3 -371755834#2 34331532#0 -34331532#0 371755834#2 233181376#0 233181376#1 -233181376#1 233181376#1 233181376#2 233181376#3 -233181376#3 -233181376#2" /><route id="route_15" color="0.630595266649994,0.9011963095540716,0.9054343838527352" edges="296948803#0" /><route id="route_17" color="0.2062201238144029,0.91795647465582,0.49390156122183626" edges="-209347136#2 209347151 -209347151 -209347136#1 209347136#1 209347136#2 -209347136#2 209347136#2 -209347136#2 209347151 -209347151 209347151 -209347151 -209347136#1 209347136#1 -209347136#1 -209347136#0 209347136#0 -209347136#0 34331537#18 -34331537#18 -182571912#3 -182571912#2 182571912#2 182571912#3 34331537#18 -34331537#18 -34331537#17 -34331537#16 199341112#0 199341112#1 282571177 282571182#0 -282571182#0 -282571177 -199341112#1 199341112#1 282571177 282571182#0 -282571182#0 -282571177 -199341112#1 199341112#1 282571177 282571182#0 -282571182#0 -282571177 -199341112#1 -199341112#0 -34331537#15 -34331537#14 86979441#0 86979441#1 86979441#2 -209347164#1 209347164#1 86979441#3 86979441#4 -86979441#4 86979441#4 -86979441#4 86979441#4 -86979441#4 86979441#4 -86979441#4 -86979441#3 -209347164#1 209347164#1 -86979441#2 -86979441#1 -86979441#0 86979441#0 -86979441#0 34331537#14 34331537#15 199341112#0 -199341112#0 34331537#16 209347161#0 209347161#1 209347161#2 -209347161#2 -209347161#1 209347161#1 209347161#2 -209347161#2 209347161#2 -209347161#2 209347161#2 -209347161#2 209347161#2 -209347161#2 -209347161#1 209347161#1 209347161#2 -209347161#2 -209347161#1 209347161#1 209347161#2 -209347161#2" /><route id="route_18" color="0.8826024645733042,0.29911234373901074,0.06040125029040044" edges="334210616#2 -334210616#2 334210616#2 -334210616#2 -182563645#3 334210603#0 334210603#1 -334210603#1 334210603#1 -334210603#1 -334210603#0 -182563645#2 334210611#0 334210611#1 -334210611#1 334210611#1 -334210611#1 334210611#1 -334210611#1 -334210611#0 334210611#0 -334210611#0 -182563645#1 -182563645#0 365278751#0 365278751#1 365278750#0 365278750#1 182563645#0 182563645#1 182563645#2 334210603#0 -334210603#0 334210603#0 334210603#1 -334210603#1 -334210603#0 334210603#0 334210603#1 -334210603#1 -334210603#0 334210603#0 334210603#1 -334210603#1 334210603#1 -334210603#1 334210603#1 -334210603#1 334210603#1 -334210603#1 -334210603#0 334210603#0 -334210603#0 334210603#0 -334210603#0 -182563645#2 334210611#0 -334210611#0 -182563645#1 -182563645#0 -365273242#1 -365273242#0 89210515 244359473 244359475 216580754 216580757#0 216580757#1 244359493#0 244359493#1 244359493#2 244359498#0 244359498#1 -989758541#0 -989758540#1 -209193196#1 -209193196#0 209193196#0 209193196#1 989758540#1 989758541#0 989758541#1 282571112#0 282571112#1 172960683#0 172960683#1 -255161543#3 -255161543#2 -255161543#1 -255161543#0 -172960678#2 172960677#0 172960677#1 189332802 -189332802 189332802 -189332803#1 182390132#0 -182390132#0 -189332803#0" /><route id="route_19" color="0.9611680060196814,0.8708277734445984,0.42579650094212407" edges="301007917 -301007917 -301007912 -301007914 301007914 301007912 301007917 -301007917 -301007912 -301007914 301007914 301007912 301007917 -301007917 -301007912 -301007914 172958496#4 172958496#5 301007926 -301007926 -172958496#5 -172958496#4 301007914 301007912 301007917 -301007917 -301007912 -301007914 -172958496#3 337084173#0 -337084160#1 -337084157 172958496#5 172958496#6 -172958496#6 301007926 -301007926 -172958496#5 -172958496#4 301007914 301007912 301007917 -301007917 -301007912 -301007914 -172958496#3 -172958496#2 301007920#0 301007920#1 -301007920#1 301007920#1 -301007920#1 301007920#1 -301007920#1 -301007920#0 301007920#0 -301007920#0 301007920#0 -301007920#0 172958496#2 172958496#3 301007914 301007912 301007917 -301007917 -301007912 -301007914 172958496#4 172958496#5 301007926 -301007926 301007926 -301007926 172958496#6 -172958496#6 301007926 -301007926 172958496#6 -172958496#6 -172958496#5 337084157 -337084160#0 337084160#0 -337084157 -172958496#4 -172958496#3 337084173#0 337084160#2 -337084156 337084156 -337084156 337084156 -337084156 337084156 -337084173#1 337084160#2 -337084160#2 -337084160#1 -337084160#0 337084160#0" /><route id="route_21" color="0.3884106273436507,0.49284187024996506,0.3362318793300584" edges="296779383#0" /><route id="route_22" color="0.7227545990044323,0.5145212290072855,0.7793463460225074" edges="-172960677#5 -172960677#4 -172960677#3 189332798 189332794#4 189332803#0 182390132#0 182390132#1 -182390132#1 -182390132#0 189332803#1 -189332802 172960677#2 172960677#3 172960677#4 189332795 189332794#2 189332794#3 -189332798 189332798 -189332798 -172960677#2 -172960677#1 -189332803#2 189332803#2 -189332803#2 -189332802 189332802 -189332802 189332802 -189332802 189332802 189332803#2 -172960677#0 172960677#0 -189332803#2 -189332802 -172960677#1 172960677#1 172960677#2 -172960677#2 -172960677#1 172960677#1 -172960677#1 172960677#1 172960677#2 172960677#3 172960677#4 -172960677#4 -172960677#3 189332798 189332794#4 189332803#0 182390132#0 -182390132#0 182390132#0 182390132#1 -182390132#1 182390132#1 -182390132#1 182390132#1 -182390132#1 -182390132#0 -189332803#0 -189332794#4 -189332798 189332798 -189332794#3 189332794#3 -189332794#3 -189332794#2 189332794#2 -189332794#2 -189332795 172960677#5 189332794#0 -189332794#0 -172960677#5 189332795 -189332795 189332795 189332794#2 189332794#3 189332794#4 189332803#0 -189332803#0 -189332794#4 -189332798 -172960677#2 172960677#2 -172960677#2 172960677#2 -172960677#2 172960677#2 172960677#3 -172960677#3 172960677#3 172960677#4 189332795 -189332794#1" /><route id="route_23" color="0.3917602795507863,0.8879823708535022,0.9745372653405903" edges="207778114#3" /><route id="route_24" color="0.4595135415014394,0.7253279344931572,0.02784535420755152" edges="630711060#1" /><route id="route_25" color="0.13014576014496249,0.804362387530314,0.617198830813898" edges="1288538380 1288538379#0 -1288538379#0 -1288538380 1288538380 1288538379#0 1288538379#1 337084164#0 -337084174 -337084172#0 -1288538381 1288538381 337084172#0 337084174 -337084164#0 -1288538379#1 -1288538379#0 -1288538380 283536875#2 172958486#0 172958486#1 -1101005393#1 -1101005393#0 1101005393#0 1101005393#1 172958486#2 172958486#3 331459553#0 -331459553#0 331459553#0 331459553#1 331459550 331459565 -331459565 -331459550 -331459553#1 331459553#1 331459550 331459565 -331459565 -331459550 -331459553#1 -331459553#0 172958486#4 -172958486#4 -172958486#3 -172958486#2 -1101005393#1 1101005393#1 -1101005393#1 1101005393#1 -1101005393#1 -1101005393#0 1101005393#0 1101005393#1 -1101005393#1 1101005393#1 172958486#2 172958486#3 331459553#0 331459553#1 331459550 331459565 -331459565 -331459550 -331459553#1 331459553#1 331459550 331459565 -331459565 -331459550 -331459553#1 -331459553#0 172958486#4 172958498#0 172958498#1 331459554#0 -331459554#0 172958498#2 -1100828841#1 1100828841#1 172958498#3 -172958498#3 -172958498#2 -172958498#1 -172958498#0 172958498#0 172958498#1 331459554#0 331459554#1 -331459554#1 -331459554#0 172958498#2 172958498#3 -172958498#3 -1100828841#1 1100828841#1 172958498#3 -172958498#3 -172958498#2" /><route id="route_27" color="0.27924234155293304,0.8633462674586899,0.29109522646394403" edges="189416613#4 189416613#5 -203759079#1 301007924 -301007924 -203759079#0 203756180#4 -203759072#3 301007925 301007913 301007928 -301007928 -301007913 -301007925 301007925 301007913 301007928 -301007928 -301007913 -301007925 203759072#3 -203759072#3 301007925 301007913 301007928 -301007928 -301007913 -301007925 203759072#3 -203756180#4 203759079#0 203759079#1 -203759079#1 203759079#1 477679819#1 -477679819#1 -203759079#1 203759079#1 477679819#1 -477679819#1 -477679819#0 -203756180#5 -203759072#3 -203759072#2 -203759072#1 -203759072#0 203759072#0 203759072#1 301007915 -301007915 301007915 -301007915 203759072#2 301007925 301007913 301007928 -301007928 -301007913 -301007925 301007925 301007913 301007928 -301007928 -301007913 -301007925 -203759072#2 203759072#2 301007925 301007913 301007928 -301007928 -301007913 -301007925 203759072#3 -203759072#3 -203759072#2 203759072#2 203759072#3 203756180#5 203756180#6 337084155 -337084155 -203756180#6 203756180#6 337084155 -337084155 -203756180#6 -203756180#5 -203756180#4 -203756180#3 301007910#0 -301007910#0 301007910#0 301007910#1 301007910#2 301007910#3 167462824#2 -304157320#1 -304157320#0 758550139#1" /><route id="route_28" color="0.563381716238721,0.6712828833499281,0.467516008728313" edges="1085986283" /><route id="route_29" color="0.9221156855531041,0.44777562469506715,0.9451287243672791" edges="-296906401#4 -296906401#3 -296906401#2 -296906401#1 -296906401#0 983288487#2 983288487#3 145642573#0 145642573#1 145642573#2 145642573#3 145642573#4 145642573#5 630756957#0 -630756957#0 145642573#6 332350413#0 -332350413#0 332350413#0 -332350413#0 332350413#0 -332350413#0 -145642573#6 630756957#0 630756957#1 -630756957#1 630756957#1 -630756957#1 -630756957#0 630756957#0 -630756957#0 145642573#6 332350413#0 332350413#1 -332350428 172860052#6 172860052#7 -145642573#7 -145642573#6 -145642573#5 320302314#0 320302314#1 -320302314#1 -320302314#0 145642573#5 630756957#0 630756957#1 -630756957#1 -630756957#0 630756957#0 -630756957#0 -145642573#5 320302314#0 -320302314#0 320302314#0 320302314#1 -320302314#1 -320302314#0 145642573#5 145642573#6 145642573#7 -145642573#7 -145642573#6 630756957#0 -630756957#0 145642573#6 332350413#0 332350413#1 -332350413#1 -332350413#0 145642573#7 172860052#8 172860052#9 172860052#10 -332215953#6 -332215953#5 -630756869 630756869 -332215953#4 -332215953#3 -332215953#2 332215933 -332215933 332215933 -332215933 332215933 -332215933 630756903#0 -630756903#0 -332215953#1 -332215953#0 332215953#0 -332215953#0 502825749#2 631137105#0 631137105#1 -631137105#1 631137105#1 -631137105#1 631137105#1" /><route id="route_30" color="0.02819628195553614,0.6935624700659867,0.8249032281333576" edges="211766861#3 -34331537#10 211766869#0 -211766869#0 34331537#10 34331537#11 211766876#0 -211766876#0 34331537#12 34331537#13 34331537#14 34331537#15 34331537#16 34331537#17 209347136#0 -209347136#0 34331537#18 -34331537#18 -182571912#3 -182571912#2 182571912#2 182571912#3 -34331537#17 209347161#0 -209347161#0 -34331537#16 -34331537#15 -34331537#14 86979441#0 161544702#0 161544702#1 -161544702#1 -161544702#0 -86979441#0 34331537#14 34331537#15 34331537#16 209347161#0 209347161#1 -209347161#1 209347161#1 209347161#2 -209347161#2 209347161#2 -209347161#2 209347161#2 -209347161#2 -209347161#1 209347161#1 -209347161#1 209347161#1 209347161#2 -209347161#2 -209347161#1 209347161#1 -209347161#1 209347161#1 209347161#2 -209347161#2 -209347161#1 -209347161#0 -34331537#16 -34331537#15 -34331537#14 86979441#0 86979441#1 -86979441#1 -86979441#0 86979441#0 -86979441#0 -34331537#13 -34331537#12 -34331537#11 -34331537#10 211766869#0 -211766869#0 -34331537#9 -34331537#8 -34331537#7 -34331537#6 -34331537#5 -233181374#0 -172962622 -989758543 -244359477 -244359498#6 -1190008995#1 1190008995#1 -244359498#5 244359498#5 -1190008995#1 -1190008995#0 -1190008994#0 1190008994#0 1190008995#0 1190008995#1 -1190008995#1 1190008995#1 -1190008995#1 -1190008995#0" /><route id="route_31" color="0.8831848720930111,0.8743777158576385,0.5700713719412714" edges="627787198#1" /><route id="route_33" color="0.8726694800696493,0.48027039591276366,0.24136954640555097" edges="301007920#0 301007920#1 -301007920#1 -301007920#0 301007920#0 -301007920#0 -172958496#1 -172958496#0 -172958491#0 -960061556 -172958494 172958474#1 -172958474#1 172958494 960061556 -960061556 -172958494 172958474#1 1203824386#2 189517602#0 189517602#1 189517602#2 -189517602#2 -189517602#1 189517602#1 189517602#2 -189517602#2 189517602#2 -189517602#2 -189517602#1 -189517602#0 189517602#0 -189517602#0 1203824386#3 172958490#0 189516334#0 189516334#1 -189516334#1 -189516334#0 172958490#1 172958490#2 172958490#3 239327577#3 239327577#4 300399985#0 300399985#1 296948806#0 -296948806#0 296948806#0 296948806#1 296948806#2 296948776 296948794 -296948794 -296948776 -296948806#2 -296948806#1 -296948806#0 296948806#0 296948806#1 296948806#2 296948776 296948794 -296948794 -296948776 -296948806#2 -296948806#1 -296948806#0 300399985#2 300399985#3 300399985#4 300399985#5 300399985#6 300399985#7 300399987#0 300399987#1 336995170#0 -336995170#0 300399987#2 300399987#3 1228832149#0 1228832149#1 1228832149#2 -627787162#1 -627787162#0 172958480#0 172958480#1 89215706#0 89215706#1 -89215706#1 89215706#1 -89215706#1 89215706#1 199624490 -199624490 199624490 -199624490 789233928#0 -789233928#0 199624490" /><route id="route_34" color="0.3839986144956624,0.7456480805432173,0.664882650236065" edges="358209367 -358209367 -208867123#1 -208867123#0 627787188#0 -490396380#1 490396380#1 -490396380#1 -490396380#0 490396380#0 -490396380#0 490396380#0 490396380#1 -627787188#0 208867123#0 -208867123#0 208867123#0 208867123#1 358209367 -358209367 -208867123#1 -208867123#0 208867123#0 -208867123#0 -172958508#2 172958508#2 -172958508#2 -172958508#1 -172958508#0 -196280503#3 -196280503#2 1125316659#2 627787160 343451792#0 343451792#1 627787162#0 627787162#1 294513667#0 294513667#1 336995163#0 -336995163#0 294513667#2 294513667#3 331459568#0 -331459568#0 294513667#4 294513667#5 294513667#6 294513667#7 331459569#0 -331459569#0 -294513667#7 -294513667#6 -294513667#5 336995173#0 -336995173#0 336995173#0 -336995173#0 -294513667#4 331459568#0 331459568#1 331459568#2 -331459568#2 331459568#2 -331459568#2 1101006880#0 -1101006880#0 331459568#2 -331459568#2 -331459568#1 331459568#1 331459568#2 -331459568#2 331459568#2 -331459568#2 1101006880#0 1101006880#1 -1101006880#1 1101006880#1 -1101006880#1 1101006880#1 -1101006880#1 1101006880#1 -1101006880#1 1101006880#1 -1101006880#1 1101006880#1 -1101006880#1 1101006880#1 -1101006880#1 -1101006880#0 331459568#2 -331459568#2 1101006880#0 1101006880#1 -1101006880#1 1101006880#1 -1101006880#1 -1101006880#0 331459568#2" /><route id="route_35" color="0.38569014060045737,0.9416181999640189,0.9736751909573987" edges="207778149" /><route id="route_36" color="0.04609478679567858,0.7947928762003764,0.9376512316671994" edges="1221605076" /><route id="route_37" color="0.7237794262373004,0.8009377756515147,0.8299934931559945" edges="230116531#0 230116531#1 230116531#2 -320302310 320302310 230116531#3 -230116531#3 -320302310 320302310 -230116531#2 -230116531#1 -230116531#0 230116531#0 -230116531#0 -145642573#3 -145642573#2 213560884#0 -213560884#0 145642573#2 145642573#3 230116531#0 230116531#1 230116531#2 230116531#3 230116534#0 230116534#1 -230116531#1 230116531#1 230116531#2 -320302310 320302310 -320302310 320302310 -230116531#2 -230116531#1 230116531#1 -230116531#1 230116531#1 230116531#2 230116531#3 -230116531#3 230116531#3 -230116531#3 -230116531#2 -230116531#1 -230116531#0 230116531#0 230116531#1 -230116531#1 -230116531#0 -145642573#3 -145642573#2 213560884#0 213560884#1 -213560884#1 213560884#1 -213560884#1 -213560884#0 213560884#0 213560884#1 -213560884#1 -213560884#0 145642573#2 630756858#0 630756858#1 630756856 630756855 -630756857#0 630756857#0 630756857#1 -630756857#1 -630756855 -630756856 -630756858#1 -630756858#0 630756858#0 -630756858#0 630756858#0 630756858#1 630756856 630756855 630756857#1 -630756857#1 630756857#1 -630756857#1 630756857#1 -630756857#1 -630756855 -630756856 -630756858#1 -630756858#0 -145642573#2 -145642573#1 -145642573#0 145642573#0 145642573#1 145642573#2 145642573#3 145642573#4 320302314#0" /><route id="route_38" color="0.902525348544644,0.4181642364393555,0.9651778459284844" edges="381178438#1 -381178438#1 124861849#11" /><route id="route_39" color="0.8027006821131217,0.7759254902618925,0.5734469497200166" edges="1078130710#0" /><route id="route_40" color="0.9810620296801078,0.2935506571406593,0.9755247120770913" edges="219915097#13" /><route id="route_41" color="0.8530616538486804,0.7846938515549747,0.3296775155689029" edges="791387012#0" /><route id="route_43" color="0.48365276943830293,0.39349477143828926,0.6275368321435796" edges="799114057#0" /><route id="route_44" color="0.17064818513950042,0.0001788414254848547,0.4169375663932504" edges="89216357#2 89216357#3 -89216357#3 -89216357#2 -89216357#1 -89216357#0 1085981920#2 1085981920#3 1085981920#4 172995226#8 172995226#9 172995226#10 363901662#8 363901662#9 -34331470#0 -172993580#10 -172993580#9 -172993580#8 -172993580#7 -172993580#6 -172993580#5 -172993580#4 627754994#1 -627754994#1 -172993580#3 -172993580#2 381178438#0 -381178438#0 381178438#0 124861849#11" /><route id="route_46" color="0.8643814686613615,0.9880319385238135,0.12897733996764194" edges="793216658#0" /><route id="route_47" color="0.10223034505687711,0.05881306199652181,0.44974347614736576" edges="631137120#0" /><route id="route_48" color="0.12557196203047394,0.5087745855038923,0.9448958419499894" edges="182564080#3 182564080#4 182564080#5 -182564080#5 182564080#5 -182564080#5 182564080#5 1268972311#0 1268972311#1 -1268972311#1 1268972311#1 -1268972311#1 -1268972311#0 -182564080#5 211965620#0 -211965620#0 182564080#5 -182564080#5 -182564080#4 -182564080#3 182564080#3 -182564080#3 182564080#3 -182564080#3 -182564080#2 182564080#2 182564080#3 -182564080#3 182564080#3 -182564080#3 182564080#3 -182564080#3 -182564080#2 182564080#2 -182564080#2 182564080#2 182564080#3 182564080#4 182564080#5 1268972311#0 -1268972311#0 182564080#6 1266831963#0 -1266831963#0 1266831963#0 -1266831963#0 1266831963#0 1266831963#1 1266831964 -1266831964 -1266831963#1 -1266831963#0 -182564080#6 -182564080#5 182564080#5 -182564080#5 211965620#0 211965620#1 -1266831963#5 -1266831963#4 1266831963#4 -1266831963#4 -1266831965 211965608#5 211965608#6 -211965608#6 -211965608#5 211965608#5 211965608#6 -211965608#6 -211965608#5 211965608#5 211965608#6 -211965608#6 -211965608#5 -211965608#4 211965608#4 -211965608#4 211965608#4 211965608#5 -211965608#5 1266831965 -1266831965 211965608#5 211965608#6 -211965608#6 -211965608#5 211965608#5 -211965608#5 -211965608#4 -211965608#3 988763126 -988763126 988763126 -988763126 -211965608#2 -211965608#1 -211965608#0 -182564080#8 -182564080#7" /><route id="route_49" color="0.6867799859745013,0.9125651512118248,0.9955118298316986" edges="123802924#2 123802924#3 34332041#1 34332041#2 301093785 34332041#2 301093785 34332041#2 301093785 34332041#2 301093785 34332041#2 34332041#3 34332041#4 34332041#5 332215930#0 332215930#1 332215930#2 332215942 -332215942 332215930#3 332215938 -332215938 -332215930#3 332215930#3 332215938 -332215938 332215938 -332215938 332215938 -332215938 -332215930#3 332215942 -332215956#2 332215956#2 -332215942 332215942 332215956#3 332215956#4 332215949#3 -332215930#6 -638488875#3 -332215956#3 -332215942 -332215930#2 -332215930#1 -332215930#0 34332041#6 638488769#0 -638488769#0 638488769#0 638488769#1 -638488769#1 -638488769#0 638488769#0 -638488769#0 638488769#0 638488769#1 -638488769#1 -638488769#0 -34332041#6 332215930#0 -332215930#0 34332041#6 638488769#0 638488769#1 -638488769#1 638488769#1 -638488769#1 638488769#1 -638488769#1 -638488769#0 -34332041#6 -34332041#5 -34332041#4 -234902865#2 234902865#2 -34332041#3 -34332041#2 -34332041#1 -34332041#0 34332041#0 -123802924#3 -123802924#2 -123802924#1 -123802924#0 123802924#0 123802924#1 123802924#2 -123802924#2 123802924#2 123802924#3 -123802924#3 123802924#3 -34332041#0 34332041#0 34332041#1 34332041#2 34332041#3 -234902865#2" /><route id="route_50" color="0.8257879958994737,0.4773198235212295,0.33876032216386576" edges="365291080#4" /><route id="route_51" color="0.1504325794703012,0.5331699227107686,0.7473429448186975" edges="296948799#0 296948784 -296948784 -296948799#0 296948811#2 296948811#3 183552012#4 296948791 -296948791 -183552012#4 -296948811#3 -296948811#2 296948811#2 296948811#3 183552012#4 183552012#5 183552012#6 -183552012#6 -183552012#5 296948791 -296948791 -183552012#4 -183552012#3 -183552012#2 296948798 -296948767#1 296948767#1 -296948798 -183552012#1 -296948805 -296948809#2 -296948809#1 -296948809#0 296948809#0 -296948809#0 296948809#0 296948809#1 296948808 -296948808 -296948809#1 -296948809#0 296948809#0 296948809#1 296948809#2 -296948809#2 -296948809#1 -296948809#0 296948809#0 296948809#1 -296948809#1 -296948809#0 296948809#0 296948809#1 -296948809#1 -296948809#0 296948809#0 -296948809#0 2